<?xml version="1.0" encoding="UTF-8"?>

<!-- generated on 2021-12-24 03:16:36 by Eclipse SUMO polyconvert Version 1.11.0
<configuration xmlns:xsi="http://www.w3.org/2001/XMLSchema-instance" xsi:noNamespaceSchemaLocation="http://sumo.dlr.de/xsd/polyconvertConfiguration.xsd">

    <input>
        <net-file value="osm.net.xml"/>
        <osm-files value="osm_bbox.osm.xml"/>
        <osm.keep-full-type value="true"/>
        <type-file value="C:\Program%20Files%20(x86)\Eclipse\Sumo\data\typemap\osmPolyconvert.typ.xml"/>
    </input>

    <output>
        <output-file value="osm.poly.xml"/>
    </output>

    <processing>
        <poi-layer-offset value="5"/>
    </processing>

    <report>
        <verbose value="true"/>
    </report>

</configuration>
-->

<additional xmlns:xsi="http://www.w3.org/2001/XMLSchema-instance" xsi:noNamespaceSchemaLocation="http://sumo.dlr.de/xsd/additional_file.xsd">
    <location netOffset="-360387.67,-155275.11" convBoundary="-12362.73,-11005.04,6300.12,5169.85" origBoundary="103.633992,1.304964,103.801680,1.451229" projParameter="+proj=utm +zone=48 +ellps=WGS84 +datum=WGS84 +units=m +no_defs"/>

    <poly id="133980816" type="natural.water" color="181,209,209" fill="0" layer="-4.00" shape="851.343843,-1091.876914 853.018248,-1102.734506 899.937749,-1401.904642 933.376163,-1692.908447 936.473386,-1748.719273 938.823387,-1765.602571 943.052786,-1784.476887 947.652649,-1797.138092 959.678430,-1822.804717 970.405141,-1843.208140 983.256067,-1865.558484 1172.474717,-2193.503650 1198.016022,-2226.297187 1473.672554,-2569.400012 1482.013400,-2577.707187 1491.156875,-2583.162415 1503.972051,-2588.962286 1516.543382,-2592.948896 1538.048676,-2598.753303 1544.223754,-2599.441979 1552.569531,-2598.307601 1560.126008,-2595.812962 1675.036188,-2548.222968 1707.978954,-2534.564286 1725.940962,-2528.459869 1739.037993,-2527.184243 1745.580062,-2528.237944 1780.765181,-2546.022757 1785.903629,-2550.204480 1791.275322,-2555.193388 1799.458000,-2568.088565 1821.883383,-2623.179598 1826.741300,-2631.893996 1832.679270,-2639.182775 1837.961681,-2644.691250 1844.691216,-2648.995410 1852.122616,-2651.630529 1865.084672,-2653.140850 1877.413255,-2653.191492 1888.641667,-2650.566089 1988.452796,-2602.360065 2005.737360,-2593.723531 2015.050911,-2614.457744 1890.444733,-2670.964733 1880.084524,-2673.004638 1865.941962,-2673.516892 1857.274088,-2673.545546 1849.185383,-2672.479990 1841.987314,-2670.486221 1831.597470,-2665.328869 1842.988861,-2691.614126 1836.344943,-2693.832856 1830.702543,-2695.864161 1806.995000,-2645.659074 1779.225181,-2575.971767 1775.022360,-2569.933180 1770.117754,-2565.408853 1748.259695,-2553.313606 1737.969912,-2548.322132 1732.005530,-2549.015528 1718.060950,-2553.939085 1683.404467,-2567.928546 1569.607295,-2614.911070 1563.998386,-2616.721273 1548.675025,-2619.786754 1539.294802,-2620.235140 1549.585955,-2622.617483 1554.392244,-2623.648170 1557.940603,-2625.805880 1573.365920,-2640.584318 1578.403388,-2646.380122 1582.973225,-2652.750577 1586.519630,-2658.656160 1654.091717,-2789.911221 1650.007097,-2791.910170 1646.111686,-2793.809716 1578.505819,-2663.317475 1575.304234,-2657.633186 1571.646329,-2652.169772 1566.508419,-2646.948810 1552.784573,-2633.984391 1550.493139,-2632.623347 1543.061372,-2630.684724 1509.206506,-2622.375288 1492.174528,-2615.998322 1477.758142,-2608.152313 1465.301162,-2598.262026 1451.988600,-2586.093819 1176.331359,-2244.284478 1151.757588,-2212.453292 944.785026,-1854.559904 933.123341,-1834.752993 923.098123,-1813.410200 916.265955,-1792.776654 910.735695,-1772.033236 906.730318,-1750.350887 906.035067,-1739.460651 903.011301,-1692.063249 898.999129,-1641.105386 870.838308,-1406.875381 825.956783,-1125.428591 760.815023,-694.707783 759.288011,-657.803007 761.723841,-575.914648 768.600530,-491.729066 773.191144,-458.896048 778.210717,-435.438502 788.697746,-404.145369 797.007597,-345.045968 801.577624,-329.990525 824.842930,-248.190669 833.706489,-173.193463 832.315289,-152.971830 828.201666,-125.905260 821.315956,-101.667472 806.456770,-69.067312 790.535980,-45.012646 768.317273,-21.208895 744.882291,-3.872080 715.226592,11.931319 679.595242,26.720791 639.189093,38.914732 424.473675,79.018166 397.816023,83.244676 363.112146,84.645234 162.993200,79.854850 145.058546,83.269641 109.240910,82.725022 60.920546,89.373353 57.472065,90.945119 10.005467,112.728312 -17.263091,119.000514 -102.244642,149.736946 -141.724866,166.474472 -177.421315,184.403992 -226.127857,217.807522 -269.926005,253.883919 -308.124639,294.954516 -338.056523,335.058819 -366.646688,387.180017 -379.793766,416.816538 -391.740601,443.743754 -405.631754,496.597773 -415.026300,551.936914 -417.592496,600.705247 -413.894465,649.105353 -404.072088,705.959800"/>
    <poly id="134376870" type="waterway.canal" color="181,209,209" fill="0" layer="-4.00" shape="1676.988904,-2558.992214 1573.742327,-2601.602191 1562.880120,-2606.085126 1548.780373,-2609.814585 1542.070459,-2610.551813 1535.684201,-2609.420799 1498.781332,-2599.639363 1491.483204,-2597.479693 1475.263636,-2590.826756 1465.855789,-2580.252608 1364.667936,-2451.975867 1269.228149,-2332.601839 1212.316970,-2263.252815 1162.298520,-2205.316846 1130.091881,-2151.945150 1088.349597,-2077.219875 1034.678789,-1982.322700 995.324501,-1915.901449 969.857718,-1868.514355 958.108092,-1846.662096 938.933328,-1810.334006 928.957196,-1780.312511 922.976645,-1748.358373 922.126270,-1736.229817 917.266947,-1667.018544 907.812124,-1576.942727 900.910375,-1519.559972 862.641954,-1251.781591 838.358249,-1092.876102 805.998341,-888.660000 788.351625,-762.007473 776.322466,-680.177767 778.776363,-564.304168 783.682890,-502.350576 789.283328,-453.719487 800.100497,-408.407889 812.394867,-347.221083 860.674682,-179.310590 860.703179,-125.856257 843.742508,-69.595768 820.164518,-28.323281 782.431707,10.137567 729.584168,40.170996 677.676404,58.960282 640.394902,67.415724 394.504296,111.615442 148.598781,107.535080 62.708306,123.987910 -100.101691,182.681913 -192.582363,234.771088 -289.759833,325.768053 -335.023631,388.146915 -363.328805,452.871524 -384.516791,551.334472 -379.253903,674.636475 -321.528432,940.894157 -316.771554,1013.096710 -332.774273,1090.926835 -570.689423,1783.986962 -665.263677,2116.529724 -365.386985,2927.394146 -594.399719,3469.893655 -866.771602,3569.866565 -916.370073,3638.450869 -915.455814,3762.474096"/>
    <poly id="174281656" type="landuse.grass" color="194,194,130" fill="0" layer="-3.00" shape="120.019587,159.578716 83.015216,166.165700 38.181741,180.573305 -32.536750,208.328065 -113.200785,239.548659 -163.856645,268.984215 -199.770465,296.466037 -228.463035,323.789198 -246.300623,342.140302 -289.839268,405.424791 -307.576035,445.633078 -320.830605,482.256887 -330.912511,521.665037 -338.347376,600.120685 -335.372021,649.604634 -328.062341,689.556179 -303.991378,799.105682 -278.992657,916.437917 -275.368194,952.223426 -274.447667,967.236639 -273.655765,991.293528 -276.605124,1031.007387 -280.719619,1056.039839 -288.967707,1091.378494 -335.049232,1225.189154 -398.294502,1408.859600 -447.643174,1549.825239 -525.521364,1791.966707"/>
    <poly id="238927639" type="amenity.parking" color="184,184,179" fill="1" layer="-1.00" shape="36.957098,-27.893063 39.011329,-15.058452 51.046862,-1.278405 55.043860,3.296526 140.300153,-13.155931 135.759065,-36.381597 133.761892,-46.573914 36.957098,-27.893063"/>
    <poly id="238927639#1" type="building.yes" color="255,230,230" fill="1" layer="-1.00" shape="36.957098,-27.893063 39.011329,-15.058452 51.046862,-1.278405 55.043860,3.296526 140.300153,-13.155931 135.759065,-36.381597 133.761892,-46.573914 36.957098,-27.893063"/>
    <poly id="238927640" type="building.yes" color="255,230,230" fill="1" layer="-1.00" shape="36.765309,-53.531220 40.683376,-50.902056 43.840913,-55.547161 40.100941,-58.054807 41.991030,-60.808700 62.339566,-65.463028 65.250414,-52.905270 71.825581,-54.412378 70.754929,-59.022047 78.097755,-60.706458 79.291086,-55.566180 83.874789,-56.618934 82.714915,-61.615505 85.874557,-62.335823 83.956314,-70.582374 75.033664,-68.543333 74.609882,-70.334135 83.821795,-72.439666 82.148906,-79.636054 78.789004,-78.871406 77.372613,-84.984469 72.054620,-83.776542 73.415246,-77.906675 70.756253,-77.297183 71.168878,-75.561653 66.384915,-74.464569 65.291968,-79.151616 58.305154,-77.555841 59.386956,-72.901956 49.296134,-70.585893 48.158578,-75.460864 42.606957,-74.186475 43.733362,-69.355721 38.782520,-68.214324 32.638090,-72.688602 21.263605,-57.226574 28.632678,-51.470488 29.346322,-48.629546 23.004771,-47.211008 24.533215,-39.638646 20.616946,-38.917921 21.654752,-33.313218 48.690363,-38.280699 47.641401,-43.940674 41.889384,-42.876237 41.097110,-47.099104 37.203089,-46.389447 36.321267,-51.607283 36.765309,-53.531220"/>
    <poly id="238927641" type="building.yes" color="255,230,230" fill="1" layer="-1.00" shape="137.385678,-73.983026 134.839750,-70.023707 130.086970,-73.028319 132.510591,-76.821736 129.327522,-78.290442 108.800490,-74.509429 111.155052,-61.840818 104.524097,-60.621131 103.653706,-65.275129 96.243947,-63.911299 97.214765,-58.726679 92.597570,-57.883967 91.660209,-62.924880 88.467115,-62.337213 86.916017,-70.661352 95.927889,-72.313490 95.593111,-74.126451 86.303097,-72.418885 84.941724,-79.681775 88.335084,-80.302716 87.185703,-86.482257 92.548322,-87.469093 93.653059,-81.543811 96.334365,-82.042757 96.657987,-80.285068 101.486569,-81.172117 100.593883,-85.903493 107.647618,-87.200797 108.529159,-82.502582 118.709233,-84.376460 117.794199,-89.284716 123.401584,-90.315906 124.316600,-85.440817 129.300941,-86.361115 133.147337,-92.886061 149.787181,-83.210158 145.329709,-75.004412 145.809711,-72.119123 152.195880,-73.327622 153.835576,-65.777434 157.718375,-66.663974 159.000939,-61.114683 132.210753,-54.975441 130.905905,-60.580000 136.613283,-61.887637 135.643006,-66.066185 140.482620,-67.130130 139.378702,-71.529721 137.385678,-73.983026"/>
    <poly id="238927642" type="building.yes" color="255,230,230" fill="1" layer="-1.00" shape="167.990152,40.228416 162.137873,41.060736 160.755996,37.059301 154.470096,38.499919 153.288070,33.691308 145.270977,43.701050 128.797927,33.815004 136.046241,21.893032 127.913579,23.887428 122.839733,3.149589 143.566340,-1.936112 146.655352,10.875829 138.344760,13.058266 141.188425,24.831099 144.923874,18.914277 150.723200,23.079178 148.522248,27.115702 150.615152,29.082500 155.232292,28.140286 153.838410,22.502609 157.142659,21.704824 155.971801,16.973597 162.424545,15.422333 167.990152,40.228416"/>
    <poly id="238927643" type="building.yes" color="255,230,230" fill="1" layer="-1.00" shape="199.469933,-59.975523 189.946845,-57.173319 188.921230,-60.799050 184.104013,-59.469779 185.140802,-55.755609 176.296345,-53.152770 174.780361,-58.248651 168.016300,-56.254993 176.621695,-27.415195 184.242387,-29.663595 183.027379,-33.731454 189.424312,-35.614358 190.538995,-31.889173 196.479798,-33.639164 195.387410,-37.286970 196.867051,-37.718937 194.682258,-45.047717 204.661476,-47.982835 208.105872,-36.420385 215.370563,-38.558035 214.077525,-42.891189 220.285337,-44.707657 221.589520,-40.341341 226.417815,-41.759063 225.013314,-46.456996 226.993579,-47.044011 221.498159,-65.482028 218.672388,-64.640278 217.201001,-69.570346 212.361578,-68.152619 213.565435,-64.128977 204.275975,-61.393233 203.451018,-64.322560 198.633801,-62.993291 199.469933,-59.975523"/>
    <poly id="238927644" type="building.yes" color="255,230,230" fill="1" layer="-1.00" shape="224.008870,-72.868602 231.284678,-75.028368 232.544263,-70.827865 248.497635,-75.568265 265.437573,-66.489529 258.768030,-54.225151 266.789217,-56.606430 273.767052,-33.415246 253.308026,-27.334687 249.027673,-41.594287 258.539620,-44.418595 256.979077,-49.613952 243.155552,-57.024942 238.160389,-55.540797 240.211385,-48.720510 232.735331,-46.494301 224.008870,-72.868602"/>
    <poly id="238927645" type="building.yes" color="255,230,230" fill="1" layer="-1.00" shape="237.741231,34.331472 243.325884,32.415836 242.711667,28.237099 248.975247,26.674883 247.826598,21.855199 259.557129,27.133551 269.673850,10.876204 257.741934,3.541594 265.896895,1.635638 260.889813,-19.124342 240.107458,-14.259738 243.252091,-1.458886 251.640764,-3.276522 254.517796,8.485234 248.485130,4.917466 245.228358,11.254146 249.035133,13.850202 248.079665,16.537257 243.540586,17.800044 242.191209,12.151288 238.886949,12.926960 237.760595,8.184655 231.296725,9.735923 237.741231,34.331472"/>
    <poly id="238927646" type="building.yes" color="255,230,230" fill="1" layer="-1.00" shape="196.970801,31.268784 206.627668,28.952957 207.464156,32.634067 212.348262,31.547986 211.500605,27.789492 220.467696,25.639872 221.716672,30.802229 228.581061,29.162300 221.477580,-0.076304 213.756535,1.774143 214.749036,5.897399 208.262911,7.448679 207.348488,3.679165 201.329632,5.119637 202.221760,8.811773 200.730958,9.177412 202.537491,16.605896 192.413350,19.021475 189.569718,7.303922 182.204685,9.065733 183.275216,13.454286 176.978225,14.961242 175.907669,10.528467 171.012483,11.703000 172.161098,16.456350 170.158526,16.943876 174.686055,35.636695 177.556415,34.949700 178.771922,39.946239 183.667108,38.771706 182.685757,34.692667 192.097863,32.432249 192.767069,35.405882 197.651175,34.319801 196.970801,31.268784"/>
    <poly id="238927647" type="building.yes" color="255,230,230" fill="1" layer="-1.00" shape="311.477556,-92.760488 305.837183,-90.999607 306.340141,-86.798700 300.043089,-85.402306 301.058226,-80.560440 289.483305,-86.148441 278.921345,-70.178310 290.642023,-62.522967 282.442434,-60.838104 289.501093,-32.163322 283.571199,-30.822402 285.833746,-23.736891 315.271509,-30.994163 313.821922,-36.775533 309.427225,-36.010333 307.944050,-42.178636 312.550098,-43.054505 311.456889,-48.239057 306.917543,-47.473780 306.337449,-50.270569 297.904150,-48.674027 294.010860,-67.378236 299.943472,-63.644577 303.367197,-69.892898 299.627131,-72.588493 300.660501,-75.253477 305.233027,-76.394666 306.426649,-70.701604 309.753204,-71.399897 310.746052,-66.624353 317.243392,-68.009799 311.477556,-92.760488"/>
    <poly id="327669038" type="building.industrial" color="255,230,230" fill="1" layer="-1.00" shape="312.328207,290.198456 316.673375,300.820679 307.796978,368.243282 266.535796,362.892358 275.877626,291.953772 283.040548,286.809012 312.328207,290.198456"/>
    <poly id="327669038#1" type="shop.furniture" color="237,199,255" fill="1" layer="-1.00" shape="312.328207,290.198456 316.673375,300.820679 307.796978,368.243282 266.535796,362.892358 275.877626,291.953772 283.040548,286.809012 312.328207,290.198456"/>
    <poly id="327669053" type="building.industrial" color="255,230,230" fill="1" layer="-1.00" shape="265.459832,286.232497 258.066362,338.618521 250.978039,337.638369 248.617003,354.355903 192.544666,346.547516 188.157501,340.612944 195.296431,290.814083 203.048435,284.474984 205.986141,284.882468 206.950524,278.082674 265.459832,286.232497"/>
    <poly id="327669053#1" type="shop.furniture" color="237,199,255" fill="1" layer="-1.00" shape="265.459832,286.232497 258.066362,338.618521 250.978039,337.638369 248.617003,354.355903 192.544666,346.547516 188.157501,340.612944 195.296431,290.814083 203.048435,284.474984 205.986141,284.882468 206.950524,278.082674 265.459832,286.232497"/>
    <poly id="327669061" type="building.industrial" color="255,230,230" fill="1" layer="-1.00" shape="251.754573,167.457076 291.744976,168.430638 288.591120,242.140883 269.108026,242.151339 262.537043,230.701129 250.597410,229.712521 251.754573,167.457076"/>
    <poly id="327669066" type="building.industrial" color="255,230,230" fill="1" layer="-1.00" shape="85.836836,302.536710 88.827859,319.328768 103.144812,313.196192 112.097456,304.888520 117.077925,296.781988 85.836836,302.536710"/>
    <poly id="327669069" type="building.industrial" color="255,230,230" fill="1" layer="-1.00" shape="241.741934,170.292716 240.140780,234.560545 216.273387,233.976349 215.532612,263.495553 195.415018,263.008850 196.917977,202.400511 192.266897,202.292450 193.083594,169.102699 241.741934,170.292716"/>
    <poly id="327669073" type="building.industrial" color="255,230,230" fill="1" layer="-1.00" shape="139.597671,274.238295 137.815708,291.839984 133.440438,308.038989 126.280808,319.308632 117.539574,327.616189 121.514721,332.942917 113.161656,338.884339 108.975628,334.541685 96.451050,342.442216 78.538429,345.414787 66.811380,346.615114 57.021252,287.328452 116.109228,274.847927 117.297887,271.287341 139.597671,274.238295"/>
    <poly id="453269672" type="building.yes" color="255,230,230" fill="1" layer="-1.00" shape="249.521157,483.939649 300.086205,492.734941 311.567469,427.588412 261.002412,418.793108 249.521157,483.939649"/>
    <poly id="453269672#1" type="shop.furniture" color="237,199,255" fill="1" layer="-1.00" shape="249.521157,483.939649 300.086205,492.734941 311.567469,427.588412 261.002412,418.793108 249.521157,483.939649"/>
    <poly id="453269673" type="building.industrial" color="255,230,230" fill="1" layer="-1.00" shape="161.181739,477.464276 234.659095,490.238352 246.739347,421.653152 212.721429,415.734508 210.103484,430.594820 170.644035,423.739370 161.181739,477.464276"/>
    <poly id="453269673#1" type="shop.furniture" color="237,199,255" fill="1" layer="-1.00" shape="161.181739,477.464276 234.659095,490.238352 246.739347,421.653152 212.721429,415.734508 210.103484,430.594820 170.644035,423.739370 161.181739,477.464276"/>
    <poly id="453269674" type="building.industrial" color="255,230,230" fill="1" layer="-1.00" shape="157.626655,529.052249 226.964434,541.109916 234.008480,501.150710 164.670694,489.093032 157.626655,529.052249"/>
    <poly id="453269678" type="building.industrial" color="255,230,230" fill="1" layer="-1.00" shape="9.976507,348.580445 44.811257,342.248875 36.352419,296.349994 1.517667,302.692615 9.976507,348.580445"/>
    <poly id="453269681" type="building.yes" color="255,230,230" fill="1" layer="-1.00" shape="58.124917,187.748818 32.168371,192.218230 33.831382,201.725273 24.341059,203.366624 34.955353,264.112208 70.402210,258.001439 58.124917,187.748818"/>
    <poly id="453269682" type="building.industrial" color="255,230,230" fill="1" layer="-1.00" shape="2.660316,399.728240 4.151908,400.833012 6.367036,402.479125 15.051408,453.905756 56.386738,452.258309 55.531204,392.524610 16.888101,393.319308 15.909618,394.580189 10.580021,394.881563 8.876859,393.478400 7.329609,392.329436 2.660316,399.728240"/>
    <poly id="453269683" type="building.industrial" color="255,230,230" fill="1" layer="-1.00" shape="101.509939,397.397566 97.527257,398.748509 78.556216,399.167777 79.999338,454.943200 112.189370,455.102769 112.364598,449.895423 119.819268,449.316513 119.243871,434.579526 121.579585,432.864630 121.895929,421.090100 120.869590,416.126627 120.699512,410.222955 118.816335,405.127273 115.732078,401.182034 111.057117,398.044719 105.938225,397.030345 101.509939,397.397566"/>
    <poly id="453269684" type="building.industrial" color="255,230,230" fill="1" layer="-1.00" shape="19.263600,506.827318 107.420592,505.066211 106.654572,466.935386 18.486439,468.696487 19.263600,506.827318"/>
    <poly id="557253970" type="landuse.grass" color="194,194,130" fill="0" layer="-3.00" shape="878.492576,-26.054816 874.761132,-33.471205 871.323302,-32.794973 866.998446,-26.269798 854.557213,-8.109687 841.881032,7.640407 830.471564,20.117337 821.652606,28.767609 808.762912,40.570934 795.872080,50.240508 780.277607,60.243200 761.512296,70.822485 744.548085,78.692160 725.102473,86.342049 701.017209,94.436649 669.466932,104.569497 652.056323,109.962941 625.377549,116.267913 597.107277,121.899342 569.960577,127.087945 542.379864,132.155171 516.824173,137.110760 494.772896,141.058405 441.391452,150.628087 411.429654,155.818220 392.315134,158.415504 380.443219,159.206824 360.426096,159.328111 242.135565,157.368354 174.327910,156.166503"/>
    <poly id="706625681" type="landuse.residential" color="235,235,227" fill="0" layer="-3.00" shape="425.593716,-135.927833 403.327862,-137.839620 211.239615,-85.465295 176.623589,-86.154312 135.031962,-105.833338 118.833522,-122.352980 103.061430,-153.046307 65.560911,-345.506605 57.153273,-358.293592 42.419689,-361.281808 -135.367273,-322.911547 -140.828601,-319.238110 -143.140602,-314.781404 -143.582255,-308.402002 -124.453802,-243.669817 -106.505759,-201.468613 -88.327013,-164.784353 -48.633988,-96.116324 -10.208405,-46.253443 46.773217,17.717649 104.325981,5.647063 114.800907,55.602316 167.695740,51.439089 373.745163,55.949926 473.933758,39.821255"/>
    <poly id="739507422" type="landuse.grass" color="194,194,130" fill="1" layer="-3.00" shape="114.800907,55.602316 104.325981,5.647063 46.773217,17.717649 85.494829,59.443331 114.800907,55.602316"/>
    <poly id="814562238" type="landuse.grass" color="194,194,130" fill="0" layer="-3.00" shape="150.993997,133.746942 159.891969,147.937730 167.381802,150.664476 174.327910,156.166503"/>
    <poly id="817547782" type="landuse.grass" color="194,194,130" fill="0" layer="-3.00" shape="150.993997,133.746942 192.764323,133.989861 210.457645,137.031748 354.930430,140.425763 392.416022,139.045818 427.107363,135.036112 649.599173,92.673115 697.993766,79.336160 738.619710,62.034368 771.022941,44.759092 798.784751,24.611816 821.005186,4.058444 841.076247,-20.053714 859.552974,-50.168266 870.533124,-74.839407 877.954067,-96.932668 883.559211,-123.016070 885.194790,-144.011730 884.797219,-159.268394 822.562699,-351.173386 817.093578,-383.033028 815.650351,-397.802687 814.140257,-412.771314 806.725502,-441.700159 802.452061,-463.975140 799.413496,-486.637728 791.622133,-575.112431 790.638949,-603.591417"/>
    <poly id="823828718" type="landuse.grass" color="194,194,130" fill="0" layer="-3.00" shape="-233.677143,208.016193 -209.652218,191.121127 -183.456761,175.695312 -146.003808,154.901407 -108.203415,138.761796 12.766141,94.274798 35.749970,86.346542 49.779045,82.823283 57.472065,90.945119 60.920546,89.373353 51.657589,79.295493 49.387574,79.042430 44.187985,72.809785"/>
    <poly id="823828720" type="landuse.forest" color="140,196,107" fill="0" layer="-3.00" shape="-143.904029,-161.581519 -145.031274,-167.971136 -137.946632,-173.889763 -131.369855,-172.411824 -124.206362,-155.809940 -109.559808,-128.399555 -102.242213,-114.915475 -82.832958,-86.755860 -67.154554,-64.829683 -44.896352,-35.787143 -27.282751,-15.487202 -15.336309,-1.861888 46.030905,65.102946 46.634860,70.884773 44.187985,72.809785"/>
    <poly id="823828721" type="landuse.forest" color="140,196,107" fill="0" layer="-3.00" shape="44.187985,72.809785 41.560777,70.445268 31.111306,67.930171 -5.028843,26.291550 -28.463855,2.147340 -48.177886,-13.408557 -64.901816,-34.593435 -71.019857,-52.080336 -90.740503,-79.941276 -108.657875,-106.454386 -119.557847,-119.052082 -128.223385,-135.498378 -143.904029,-161.581519"/>
    <poly id="823828722" type="man_made.bridge" color="255,230,230" fill="1" layer="-1.00" shape="52.548046,79.869913 77.831722,107.031341 95.155688,126.734418 115.030787,152.185108 116.020999,152.040851 128.860373,150.154482 145.193273,147.702395 156.463826,145.938482 158.032557,145.650191 144.870017,125.900658 134.982390,112.893365 128.892235,105.876241 95.114062,69.930062 93.845761,70.229248 82.041666,73.021631 65.331299,77.065947 53.949870,79.570656 52.548046,79.869913"/>
    <poly id="826095970" type="natural.water" color="181,209,209" fill="0" layer="-4.00" shape="-342.488174,494.142460 -333.892596,463.380711 -312.088829,413.120543 -299.394887,389.155878 -284.041433,365.543565 -258.968521,331.876339 -229.343346,300.749490 -192.564222,268.457944 -144.001583,236.469629 -113.088397,220.952835 -84.009100,209.229155 49.263180,158.179478 73.504525,150.604329 79.332820,146.554798 105.355903,141.665242 150.993997,133.746942"/>
    <poly id="826095971" type="landuse.industrial" color="209,209,204" fill="0" layer="-3.00" shape="518.205984,141.001634 417.339947,159.441331 386.454011,163.493224 356.612305,164.393679 174.708846,161.052933 120.019587,159.578716"/>
    <poly id="826095972" type="landuse.grass" color="194,194,130" fill="0" layer="-3.00" shape="-342.488174,494.142460 -337.725106,495.577136 -329.029642,464.339936 -308.471331,415.473467 -295.477251,390.977964 -280.791401,367.377068 -255.251185,333.665366 -227.105103,303.987618 -190.147568,272.403544 -169.570627,258.019990 -141.985468,240.470724 -111.573169,224.622527 -82.849677,213.374435 48.075548,163.652707 62.326447,158.813692 73.629759,155.888905 80.639009,154.646897 104.393021,151.262139 112.793014,149.809326 120.019587,159.578716"/>
    <poly id="826160048" type="landuse.grass" color="194,194,130" fill="0" layer="-3.00" shape="815.394092,-189.601428 810.678273,-165.055238 803.904884,-138.838538 795.938260,-117.618380 789.158719,-102.943835 772.238605,-74.963857 755.603721,-54.612468 740.056761,-38.960335 733.962126,-33.584004 709.847927,-17.142335 695.876966,-9.008922 678.545642,-0.984270 662.503779,4.695884 639.074850,12.535853 618.904825,18.019215 397.012935,58.823007 373.681044,60.880815 167.008396,56.138145 139.169828,57.667717 115.537902,60.488556 92.362347,63.629769"/>
    <poly id="826160049" type="landuse.grass" color="194,194,130" fill="0" layer="-3.00" shape="92.362347,63.629769 140.353166,64.919645 177.574052,67.829444 352.034025,71.749136 374.577114,71.936061 397.319436,70.166018 542.321287,43.488326 628.746171,27.787208 657.883536,20.640696 687.809175,10.254443 717.343602,-3.448310 744.595985,-19.106699 759.755534,-30.955461 772.255205,-43.864150 791.146486,-68.616914 805.896395,-97.480188 813.661796,-120.458096 818.667533,-143.832536 820.628010,-160.660371 820.908860,-176.503353 819.922661,-189.703344 815.394092,-189.601428"/>
    <poly id="826160050" type="landuse.grass" color="194,194,130" fill="1" layer="-3.00" shape="106.173815,69.293949 95.114062,69.930062 103.753301,78.869516 110.416386,75.328104 111.716543,72.187576 152.842411,74.078148 177.477428,74.385546 177.376236,72.428735 106.173815,69.293949"/>
    <poi id="2467396047" type="amenity.parking_entrance" color="237,199,199" layer="4.00" x="135.76" y="-36.38"/>
    <poi id="7445137847" type="shop.furniture" color="237,199,255" layer="4.00" x="221.07" y="343.23"/>
    <poi id="7445137848" type="shop.furniture" color="237,199,255" layer="4.00" x="228.87" y="429.79"/>
</additional>
